36
1  1
C -2.5825183768 -2.7801318876 -0.2015825966
C -3.0479109449 -1.5499495814 -0.9295475187
N -1.930646921 -0.7294704268 -1.3656361377
O -3.5444106548 -3.6538036846 -0.0335039461
O -1.4524397139 -2.9422661976  0.210597517
C -2.173289151  0.7135061564 -1.2956890478
P -2.0369152017  1.3317147722  0.4116494303
O -1.5853563719  2.7999605598  0.3614743218
O -1.1821346456  0.3814965044  1.1772629915
O -3.5095712528  1.3861136938  0.9677733094
H -0.641109505  2.9468085442 -0.0391078791
Ca  0.1587969912 -1.1672380123  0.186606414
H -3.2140187905 -4.4096143  0.4766486663
H -1.675599456 -0.9675100241 -2.3174419097
H -3.7298876239 -1.8446831061 -1.7341729417
H -3.6674874923 -0.995581176 -0.2137317531
H -1.3763220964  1.2167567068 -1.8504147936
H -3.1314311724  1.0206754826 -1.7313171343
C  3.1883567467 -2.0539811089  0.4675957511
O  4.3194221666 -2.69055142  0.286816081
O  2.1016206741 -2.5545404515  0.2555124713
C  3.3907333322 -0.6391965678  0.926942627
N  2.1607497276 -0.0572109754  1.4431010729
C  2.0197536829  1.3787617787  1.1554158012
P  1.5747490393  1.6977842277 -0.5982729644
O  1.0306906374  0.3951264375 -1.1230928844
O  0.7090747234  2.9103836959 -0.6580639288
O  2.9584856691  1.9814929994 -1.3289243671
H  4.1410927361 -3.5793839061 -0.0575788464
H  3.7243911026 -0.0843000697  0.041134207
H  4.2310180663 -0.6026474609  1.628154081
H  2.1274996163 -0.1889872689  2.4481384608
H  2.9092325396  1.9577920444  1.4309804781
H  1.1852214295  1.757451035  1.7504480238
H -3.7700447534  2.2218182383  1.3695895759
H  3.0440569845  2.8917018757 -1.6303367202


