36
1  1
C -1.3065754478  0.9403976141 -1.1530422077
C -2.635536685  1.0729978813 -1.8657243892
N -3.7486717576  0.7319509716 -1.0062124385
O -0.5277866369 -0.0103964191 -1.4714936397
O -1.0663024316  1.6887113345 -0.1817752843
C -3.8315672442 -0.6199248902 -0.5233926884
P -3.2059579498 -0.9457295087  1.1419123751
O -4.0733523312  0.0692621976  1.9863722806
O -1.7526268973 -0.8291201087  1.3908884693
O -3.6581269222 -2.4049425824  1.5251401277
H -3.7425274692  0.2813459739  2.8656309399
Ca  0.2667138944  0.0255992242  0.784591994
H -3.9245087322  1.428821991 -0.295706
H -2.7647111678  2.1057772358 -2.1956765575
H -2.6484024669  0.4273152799 -2.7472088186
H -4.8765412909 -0.9638400285 -0.5047100415
H -3.3036497903 -1.2982274886 -1.2016832876
C  2.9233650429  1.1878368326  2.1198350357
O  3.8608231244  1.4460122495  2.9982645182
O  1.798676944  0.8482838218  2.4230942928
C  3.4126254917  1.3241357132  0.7052609738
N  2.3157377711  1.3761252848 -0.2425671728
C  2.6257035911  0.7853145113 -1.5444434553
P  2.3176889848 -1.0129499334 -1.4996877395
O  3.7046912747 -1.621540931 -1.9031467882
O  1.8247258275 -1.3947867153 -0.1527015846
O  1.3739449748 -1.4024025207 -2.6804520812
H  3.5182153263  1.2993185685  3.8937233562
H  4.0192815395  0.4292997078  0.5185579162
H  4.1057268037  2.1702577848  0.6405133566
H  1.9973727975  2.3299171005 -0.3679483392
H  3.6503901409  0.9807834749 -1.8816616133
H  1.9524449694  1.2046571131 -2.2938871389
H  3.7172036513 -2.5584304811 -2.1281909297
H  0.4637590596 -1.0635602012 -2.517562871
H -4.6059656585 -2.5656947999  1.5780583478


