36
1  2
C -3.0562298314 -1.6111099057  0.0904052669
C -2.7109131187 -1.0658322344 -1.2725221978
N -1.7852072835  0.0555945902 -1.1452353706
O -4.1025623994 -2.4058554037  0.0427185441
O -2.4328906224 -1.3573862227  1.0916647776
C -2.4277961759  1.3488654103 -0.8641031207
P -1.2374512002  2.3197767999  0.0825392408
O -0.1539502249  2.8953527435 -0.8674730212
O -0.6959479297  1.4089237615  1.1384562949
O -2.0582308981  3.5384753063  0.5927209617
H  0.6078389367  2.2639838134 -1.0048820645
Cu -0.4003726602 -0.4001824228  0.3734694284
H -4.266387296 -2.7763013764  0.9235841929
H -1.1931022084  0.1115632361 -1.9697620893
H -2.2202587558 -1.8720018934 -1.8239879085
H -3.6248311955 -0.7990238471 -1.8120806077
H -2.7742377051  1.8617804382 -1.7648618717
H -3.2905589631  1.1883545384 -0.2114144723
C  1.2433333559 -2.369484486 -0.3410071928
O  0.0578273855 -1.9672060199 -0.6250105266
O  2.0594803017 -2.7982139447 -1.1337226454
C  1.5988096267 -2.205869186  1.1388604711
N  1.2030835553 -0.8479815653  1.5720843696
C  2.2909218428  0.1355348955  1.4518320296
P  2.7343984612  0.5334691781 -0.2652577929
O  3.625603355 -0.5881449564 -0.869195161
O  1.5062895348  0.8731888667 -1.0200062716
O  3.7385266175  1.7148793394 -0.0472126342
H  2.6608832878 -2.3905059028  1.3178315906
H  1.0181734107 -2.9382676683  1.7030957047
H  0.8864155233 -0.8566808778  2.5362025999
H  3.1886225987 -0.1986692646  1.9838528613
H  1.9631182917  1.0789250298  1.895954364
H -1.5865717396  4.3641929179  0.7494196061
H  4.5429042272  1.6969838161 -0.5776269245
H  3.1927918956 -1.4320535031 -1.1532164311


